2_Harmonics_analysis_simulation/ACN_Infrastructure_VLN_elem.Txt

NODE-GROUND VOLTAGES BY CIRCUIT ELEMENT

Power Delivery Elements

Bus               (node ref)  Phase    Magnitude, kV (pu)    Angle

ELEMENT = "Vsource.SOURCE"
UTILITY_COMPANY    (  1)    1           5.7729 (  0.9999) /_    0.0
UTILITY_COMPANY    (  2)    2           5.7729 (  0.9999) /_ -120.0
UTILITY_COMPANY    (  3)    3           5.7733 (       1) /_  120.0
------------
UTILITY_COMPANY    (  0)    0                0 (       0) /_    0.0
UTILITY_COMPANY    (  0)    0                0 (       0) /_    0.0
UTILITY_COMPANY    (  0)    0                0 (       0) /_    0.0

ELEMENT = "Line.LINE_0"
MAIN_SWITCH_PANEL  (  4)    1          0.27465 (  0.9911) /_   -1.7
MAIN_SWITCH_PANEL  (  5)    2          0.27433 (  0.9899) /_ -121.2
MAIN_SWITCH_PANEL  (  6)    3          0.27682 (  0.9989) /_  118.6
------------
DCFC               (  7)    1          0.27465 (  0.9911) /_   -1.7
DCFC               (  8)    2          0.27433 (  0.9899) /_ -121.2
DCFC               (  9)    3          0.27682 (  0.9989) /_  118.6

ELEMENT = "Line.LINE_1"
SWITCH_PANEL_1     ( 10)    1          0.11973 (   0.997) /_  -43.0
SWITCH_PANEL_1     ( 11)    2          0.11098 (  0.9241) /_ -162.1
SWITCH_PANEL_1     ( 12)    3          0.11721 (   0.976) /_   81.2
------------
5                  ( 13)    1           0.1183 (  0.9851) /_  -43.3
5                  ( 14)    2          0.10948 (  0.9117) /_ -162.1
5                  ( 15)    3          0.11618 (  0.9674) /_   81.1

ELEMENT = "Line.LINE_2"
SWITCH_PANEL_1     ( 10)    1          0.11973 (   0.997) /_  -43.0
SWITCH_PANEL_1     ( 11)    2          0.11098 (  0.9241) /_ -162.1
SWITCH_PANEL_1     ( 12)    3          0.11721 (   0.976) /_   81.2
------------
17                 ( 16)    1           0.1183 (  0.9851) /_  -43.3
17                 ( 17)    2          0.10948 (  0.9117) /_ -162.1
17                 ( 18)    3          0.11618 (  0.9674) /_   81.1

ELEMENT = "Line.LINE_3"
SWITCH_PANEL_1     ( 10)    1          0.11973 (   0.997) /_  -43.0
SWITCH_PANEL_1     ( 11)    2          0.11098 (  0.9241) /_ -162.1
SWITCH_PANEL_1     ( 12)    3          0.11721 (   0.976) /_   81.2
------------
2X19               ( 19)    1          0.11907 (  0.9915) /_  -43.5
2X19               ( 20)    2           0.1102 (  0.9176) /_ -162.5
2X19               ( 21)    3          0.11644 (  0.9696) /_   80.8

ELEMENT = "Line.LINE_4"
2X19               ( 19)    1          0.11907 (  0.9915) /_  -43.5
2X19               ( 20)    2           0.1102 (  0.9176) /_ -162.5
2X19               ( 21)    3          0.11644 (  0.9696) /_   80.8
------------
26                 ( 22)    1          0.11784 (  0.9813) /_  -43.8
26                 ( 23)    2          0.10895 (  0.9073) /_ -162.5
26                 ( 24)    3          0.11548 (  0.9616) /_   80.7

ELEMENT = "Line.LINE_5"
2X19               ( 19)    1          0.11907 (  0.9915) /_  -43.5
2X19               ( 20)    2           0.1102 (  0.9176) /_ -162.5
2X19               ( 21)    3          0.11644 (  0.9696) /_   80.8
------------
25                 ( 25)    1          0.11784 (  0.9813) /_  -43.8
25                 ( 26)    2          0.10895 (  0.9073) /_ -162.5
25                 ( 27)    3          0.11548 (  0.9616) /_   80.7

ELEMENT = "Line.LINE_6"
26                 ( 22)    1          0.11784 (  0.9813) /_  -43.8
26                 ( 23)    2          0.10895 (  0.9073) /_ -162.5
26                 ( 24)    3          0.11548 (  0.9616) /_   80.7
------------
32                 ( 28)    1          0.11591 (  0.9652) /_  -44.5
32                 ( 29)    2          0.10658 (  0.8875) /_ -162.1
32                 ( 30)    3          0.11519 (  0.9592) /_   80.7

ELEMENT = "Line.LINE_7"
26                 ( 22)    1          0.11784 (  0.9813) /_  -43.8
26                 ( 23)    2          0.10895 (  0.9073) /_ -162.5
26                 ( 24)    3          0.11548 (  0.9616) /_   80.7
------------
47                 ( 31)    1          0.11653 (  0.9704) /_  -43.5
47                 ( 32)    2          0.10816 (  0.9007) /_ -162.9
47                 ( 33)    3          0.11337 (   0.944) /_   80.5

ELEMENT = "Line.LINE_8"
25                 ( 25)    1          0.11784 (  0.9813) /_  -43.8
25                 ( 26)    2          0.10895 (  0.9073) /_ -162.5
25                 ( 27)    3          0.11548 (  0.9616) /_   80.7
------------
61                 ( 34)    1          0.11591 (  0.9652) /_  -44.5
61                 ( 35)    2          0.10658 (  0.8875) /_ -162.1
61                 ( 36)    3          0.11519 (  0.9592) /_   80.7

ELEMENT = "Line.LINE_9"
25                 ( 25)    1          0.11784 (  0.9813) /_  -43.8
25                 ( 26)    2          0.10895 (  0.9073) /_ -162.5
25                 ( 27)    3          0.11548 (  0.9616) /_   80.7
------------
76                 ( 37)    1          0.11653 (  0.9704) /_  -43.5
76                 ( 38)    2          0.10816 (  0.9007) /_ -162.9
76                 ( 39)    3          0.11337 (   0.944) /_   80.5

ELEMENT = "Line.LINE_10"
5                  ( 13)    1           0.1183 (  0.9851) /_  -43.3
5                  ( 14)    2          0.10948 (  0.9117) /_ -162.1
5                  ( 15)    3          0.11618 (  0.9674) /_   81.1
------------
6                  ( 40)    1          0.11798 (  0.9824) /_  -43.4
6                  ( 41)    2          0.10922 (  0.9095) /_ -162.1
6                  ( 42)    3          0.11599 (  0.9658) /_   81.0

ELEMENT = "Line.LINE_11"
6                  ( 40)    1          0.11798 (  0.9824) /_  -43.4
6                  ( 41)    2          0.10922 (  0.9095) /_ -162.1
6                  ( 42)    3          0.11599 (  0.9658) /_   81.0
------------
7                  ( 43)    1          0.11772 (  0.9803) /_  -43.4
7                  ( 44)    2          0.10908 (  0.9083) /_ -162.0
7                  ( 45)    3          0.11587 (  0.9649) /_   81.0

ELEMENT = "Line.LINE_12"
7                  ( 43)    1          0.11772 (  0.9803) /_  -43.4
7                  ( 44)    2          0.10908 (  0.9083) /_ -162.0
7                  ( 45)    3          0.11587 (  0.9649) /_   81.0
------------
8                  ( 46)    1          0.11759 (  0.9792) /_  -43.4
8                  ( 47)    2          0.10901 (  0.9077) /_ -162.0
8                  ( 48)    3          0.11581 (  0.9644) /_   81.0

ELEMENT = "Line.LINE_13"
5                  ( 13)    1           0.1183 (  0.9851) /_  -43.3
5                  ( 14)    2          0.10948 (  0.9117) /_ -162.1
5                  ( 15)    3          0.11618 (  0.9674) /_   81.1
------------
1                  ( 49)    1          0.11822 (  0.9845) /_  -43.3
1                  ( 50)    2          0.10941 (   0.911) /_ -162.1
1                  ( 51)    3          0.11618 (  0.9674) /_   81.1

ELEMENT = "Line.LINE_14"
5                  ( 13)    1           0.1183 (  0.9851) /_  -43.3
5                  ( 14)    2          0.10948 (  0.9117) /_ -162.1
5                  ( 15)    3          0.11618 (  0.9674) /_   81.1
------------
9                  ( 52)    1           0.1183 (  0.9851) /_  -43.3
9                  ( 53)    2          0.10941 (  0.9111) /_ -162.1
9                  ( 54)    3           0.1161 (  0.9668) /_   81.1

ELEMENT = "Line.LINE_15"
6                  ( 40)    1          0.11798 (  0.9824) /_  -43.4
6                  ( 41)    2          0.10922 (  0.9095) /_ -162.1
6                  ( 42)    3          0.11599 (  0.9658) /_   81.0
------------
2                  ( 55)    1          0.11791 (  0.9818) /_  -43.4
2                  ( 56)    2          0.10914 (  0.9088) /_ -162.1
2                  ( 57)    3          0.11599 (  0.9658) /_   81.0

ELEMENT = "Line.LINE_16"
6                  ( 40)    1          0.11798 (  0.9824) /_  -43.4
6                  ( 41)    2          0.10922 (  0.9095) /_ -162.1
6                  ( 42)    3          0.11599 (  0.9658) /_   81.0
------------
10                 ( 58)    1          0.11798 (  0.9824) /_  -43.4
10                 ( 59)    2          0.10915 (  0.9089) /_ -162.1
10                 ( 60)    3          0.11591 (  0.9652) /_   81.0

ELEMENT = "Line.LINE_17"
7                  ( 43)    1          0.11772 (  0.9803) /_  -43.4
7                  ( 44)    2          0.10908 (  0.9083) /_ -162.0
7                  ( 45)    3          0.11587 (  0.9649) /_   81.0
------------
3                  ( 61)    1          0.11765 (  0.9797) /_  -43.4
3                  ( 62)    2            0.109 (  0.9077) /_ -162.0
3                  ( 63)    3          0.11587 (  0.9648) /_   81.0

ELEMENT = "Line.LINE_18"
7                  ( 43)    1          0.11772 (  0.9803) /_  -43.4
7                  ( 44)    2          0.10908 (  0.9083) /_ -162.0
7                  ( 45)    3          0.11587 (  0.9649) /_   81.0
------------
11                 ( 64)    1          0.11765 (  0.9797) /_  -43.4
11                 ( 65)    2          0.10908 (  0.9083) /_ -162.0
11                 ( 66)    3           0.1158 (  0.9643) /_   81.0

ELEMENT = "Line.LINE_19"
8                  ( 46)    1          0.11759 (  0.9792) /_  -43.4
8                  ( 47)    2          0.10901 (  0.9077) /_ -162.0
8                  ( 48)    3          0.11581 (  0.9644) /_   81.0
------------
4                  ( 67)    1          0.11752 (  0.9786) /_  -43.4
4                  ( 68)    2          0.10893 (  0.9071) /_ -162.0
4                  ( 69)    3          0.11581 (  0.9644) /_   81.0

ELEMENT = "Line.LINE_20"
8                  ( 46)    1          0.11759 (  0.9792) /_  -43.4
8                  ( 47)    2          0.10901 (  0.9077) /_ -162.0
8                  ( 48)    3          0.11581 (  0.9644) /_   81.0
------------
12                 ( 70)    1          0.11752 (  0.9786) /_  -43.4
12                 ( 71)    2          0.10901 (  0.9077) /_ -162.0
12                 ( 72)    3          0.11574 (  0.9638) /_   80.9

ELEMENT = "Line.LINE_21"
17                 ( 16)    1           0.1183 (  0.9851) /_  -43.3
17                 ( 17)    2          0.10948 (  0.9117) /_ -162.1
17                 ( 18)    3          0.11618 (  0.9674) /_   81.1
------------
18                 ( 73)    1          0.11798 (  0.9824) /_  -43.4
18                 ( 74)    2          0.10922 (  0.9095) /_ -162.1
18                 ( 75)    3          0.11599 (  0.9658) /_   81.0

ELEMENT = "Line.LINE_22"
18                 ( 73)    1          0.11798 (  0.9824) /_  -43.4
18                 ( 74)    2          0.10922 (  0.9095) /_ -162.1
18                 ( 75)    3          0.11599 (  0.9658) /_   81.0
------------
19                 ( 76)    1          0.11772 (  0.9803) /_  -43.4
19                 ( 77)    2          0.10908 (  0.9083) /_ -162.0
19                 ( 78)    3          0.11587 (  0.9649) /_   81.0

ELEMENT = "Line.LINE_23"
19                 ( 76)    1          0.11772 (  0.9803) /_  -43.4
19                 ( 77)    2          0.10908 (  0.9083) /_ -162.0
19                 ( 78)    3          0.11587 (  0.9649) /_   81.0
------------
20                 ( 79)    1          0.11759 (  0.9792) /_  -43.4
20                 ( 80)    2          0.10901 (  0.9077) /_ -162.0
20                 ( 81)    3          0.11581 (  0.9644) /_   81.0

ELEMENT = "Line.LINE_24"
17                 ( 16)    1           0.1183 (  0.9851) /_  -43.3
17                 ( 17)    2          0.10948 (  0.9117) /_ -162.1
17                 ( 18)    3          0.11618 (  0.9674) /_   81.1
------------
13                 ( 82)    1          0.11822 (  0.9845) /_  -43.3
13                 ( 83)    2          0.10941 (   0.911) /_ -162.1
13                 ( 84)    3          0.11618 (  0.9674) /_   81.1

ELEMENT = "Line.LINE_25"
17                 ( 16)    1           0.1183 (  0.9851) /_  -43.3
17                 ( 17)    2          0.10948 (  0.9117) /_ -162.1
17                 ( 18)    3          0.11618 (  0.9674) /_   81.1
------------
21                 ( 85)    1           0.1183 (  0.9851) /_  -43.3
21                 ( 86)    2          0.10941 (  0.9111) /_ -162.1
21                 ( 87)    3           0.1161 (  0.9668) /_   81.1

ELEMENT = "Line.LINE_26"
18                 ( 73)    1          0.11798 (  0.9824) /_  -43.4
18                 ( 74)    2          0.10922 (  0.9095) /_ -162.1
18                 ( 75)    3          0.11599 (  0.9658) /_   81.0
------------
14                 ( 88)    1          0.11791 (  0.9818) /_  -43.4
14                 ( 89)    2          0.10914 (  0.9088) /_ -162.1
14                 ( 90)    3          0.11599 (  0.9658) /_   81.0

ELEMENT = "Line.LINE_27"
18                 ( 73)    1          0.11798 (  0.9824) /_  -43.4
18                 ( 74)    2          0.10922 (  0.9095) /_ -162.1
18                 ( 75)    3          0.11599 (  0.9658) /_   81.0
------------
22                 ( 91)    1          0.11798 (  0.9824) /_  -43.4
22                 ( 92)    2          0.10915 (  0.9089) /_ -162.1
22                 ( 93)    3          0.11591 (  0.9652) /_   81.0

ELEMENT = "Line.LINE_28"
19                 ( 76)    1          0.11772 (  0.9803) /_  -43.4
19                 ( 77)    2          0.10908 (  0.9083) /_ -162.0
19                 ( 78)    3          0.11587 (  0.9649) /_   81.0
------------
15                 ( 94)    1          0.11765 (  0.9797) /_  -43.4
15                 ( 95)    2            0.109 (  0.9077) /_ -162.0
15                 ( 96)    3          0.11587 (  0.9648) /_   81.0

ELEMENT = "Line.LINE_29"
19                 ( 76)    1          0.11772 (  0.9803) /_  -43.4
19                 ( 77)    2          0.10908 (  0.9083) /_ -162.0
19                 ( 78)    3          0.11587 (  0.9649) /_   81.0
------------
23                 ( 97)    1          0.11765 (  0.9797) /_  -43.4
23                 ( 98)    2          0.10908 (  0.9083) /_ -162.0
23                 ( 99)    3           0.1158 (  0.9643) /_   81.0

ELEMENT = "Line.LINE_30"
20                 ( 79)    1          0.11759 (  0.9792) /_  -43.4
20                 ( 80)    2          0.10901 (  0.9077) /_ -162.0
20                 ( 81)    3          0.11581 (  0.9644) /_   81.0
------------
16                 (100)    1          0.11752 (  0.9786) /_  -43.4
16                 (101)    2          0.10893 (  0.9071) /_ -162.0
16                 (102)    3          0.11581 (  0.9644) /_   81.0

ELEMENT = "Line.LINE_31"
20                 ( 79)    1          0.11759 (  0.9792) /_  -43.4
20                 ( 80)    2          0.10901 (  0.9077) /_ -162.0
20                 ( 81)    3          0.11581 (  0.9644) /_   81.0
------------
24                 (103)    1          0.11752 (  0.9786) /_  -43.4
24                 (104)    2          0.10901 (  0.9077) /_ -162.0
24                 (105)    3          0.11574 (  0.9638) /_   80.9

ELEMENT = "Line.LINE_32"
32                 ( 28)    1          0.11591 (  0.9652) /_  -44.5
32                 ( 29)    2          0.10658 (  0.8875) /_ -162.1
32                 ( 30)    3          0.11519 (  0.9592) /_   80.7
------------
33                 (106)    1          0.11513 (  0.9587) /_  -44.8
33                 (107)    2           0.1056 (  0.8793) /_ -161.9
33                 (108)    3          0.11505 (   0.958) /_   80.8

ELEMENT = "Line.LINE_33"
33                 (106)    1          0.11513 (  0.9587) /_  -44.8
33                 (107)    2           0.1056 (  0.8793) /_ -161.9
33                 (108)    3          0.11505 (   0.958) /_   80.8
------------
34                 (109)    1          0.11458 (  0.9542) /_  -45.0
34                 (110)    2          0.10487 (  0.8733) /_ -161.8
34                 (111)    3          0.11491 (  0.9569) /_   80.8

ELEMENT = "Line.LINE_34"
34                 (109)    1          0.11458 (  0.9542) /_  -45.0
34                 (110)    2          0.10487 (  0.8733) /_ -161.8
34                 (111)    3          0.11491 (  0.9569) /_   80.8
------------
35                 (112)    1          0.11426 (  0.9514) /_  -45.1
35                 (113)    2           0.1044 (  0.8693) /_ -161.8
35                 (114)    3          0.11477 (  0.9557) /_   80.8

ELEMENT = "Line.LINE_35"
35                 (112)    1          0.11426 (  0.9514) /_  -45.1
35                 (113)    2           0.1044 (  0.8693) /_ -161.8
35                 (114)    3          0.11477 (  0.9557) /_   80.8
------------
36                 (115)    1          0.11415 (  0.9505) /_  -45.1
36                 (116)    2          0.10417 (  0.8674) /_ -161.8
36                 (117)    3          0.11464 (  0.9546) /_   80.8

ELEMENT = "Line.LINE_36"
32                 ( 28)    1          0.11591 (  0.9652) /_  -44.5
32                 ( 29)    2          0.10658 (  0.8875) /_ -162.1
32                 ( 30)    3          0.11519 (  0.9592) /_   80.7
------------
27                 (118)    1          0.11584 (  0.9646) /_  -44.5
27                 (119)    2           0.1065 (  0.8869) /_ -162.1
27                 (120)    3          0.11519 (  0.9592) /_   80.7

ELEMENT = "Line.LINE_37"
32                 ( 28)    1          0.11591 (  0.9652) /_  -44.5
32                 ( 29)    2          0.10658 (  0.8875) /_ -162.1
32                 ( 30)    3          0.11519 (  0.9592) /_   80.7
------------
37                 (121)    1          0.11584 (  0.9646) /_  -44.5
37                 (122)    2           0.1065 (  0.8869) /_ -162.1
37                 (123)    3          0.11519 (  0.9592) /_   80.7

ELEMENT = "Line.LINE_38"
33                 (106)    1          0.11513 (  0.9587) /_  -44.8
33                 (107)    2           0.1056 (  0.8793) /_ -161.9
33                 (108)    3          0.11505 (   0.958) /_   80.8
------------
28                 (124)    1          0.11506 (  0.9582) /_  -44.8
28                 (125)    2          0.10553 (  0.8787) /_ -161.9
28                 (126)    3          0.11505 (   0.958) /_   80.8

ELEMENT = "Line.LINE_39"
33                 (106)    1          0.11513 (  0.9587) /_  -44.8
33                 (107)    2           0.1056 (  0.8793) /_ -161.9
33                 (108)    3          0.11505 (   0.958) /_   80.8
------------
38                 (127)    1          0.11506 (  0.9582) /_  -44.8
38                 (128)    2          0.10553 (  0.8787) /_ -161.9
38                 (129)    3          0.11505 (   0.958) /_   80.8

ELEMENT = "Line.LINE_40"
34                 (109)    1          0.11458 (  0.9542) /_  -45.0
34                 (110)    2          0.10487 (  0.8733) /_ -161.8
34                 (111)    3          0.11491 (  0.9569) /_   80.8
------------
29                 (130)    1          0.11452 (  0.9536) /_  -45.0
29                 (131)    2           0.1048 (  0.8727) /_ -161.8
29                 (132)    3          0.11491 (  0.9569) /_   80.8

ELEMENT = "Line.LINE_41"
34                 (109)    1          0.11458 (  0.9542) /_  -45.0
34                 (110)    2          0.10487 (  0.8733) /_ -161.8
34                 (111)    3          0.11491 (  0.9569) /_   80.8
------------
39                 (133)    1          0.11452 (  0.9536) /_  -45.0
39                 (134)    2           0.1048 (  0.8727) /_ -161.8
39                 (135)    3          0.11491 (  0.9569) /_   80.8

ELEMENT = "Line.LINE_42"
35                 (112)    1          0.11426 (  0.9514) /_  -45.1
35                 (113)    2           0.1044 (  0.8693) /_ -161.8
35                 (114)    3          0.11477 (  0.9557) /_   80.8
------------
30                 (136)    1          0.11419 (  0.9509) /_  -45.1
30                 (137)    2          0.10433 (  0.8687) /_ -161.7
30                 (138)    3          0.11477 (  0.9557) /_   80.8

ELEMENT = "Line.LINE_43"
35                 (112)    1          0.11426 (  0.9514) /_  -45.1
35                 (113)    2           0.1044 (  0.8693) /_ -161.8
35                 (114)    3          0.11477 (  0.9557) /_   80.8
------------
40                 (139)    1          0.11419 (  0.9509) /_  -45.1
40                 (140)    2          0.10433 (  0.8687) /_ -161.7
40                 (141)    3          0.11477 (  0.9557) /_   80.8

ELEMENT = "Line.LINE_44"
36                 (115)    1          0.11415 (  0.9505) /_  -45.1
36                 (116)    2          0.10417 (  0.8674) /_ -161.8
36                 (117)    3          0.11464 (  0.9546) /_   80.8
------------
31                 (142)    1          0.11408 (  0.9499) /_  -45.2
31                 (143)    2           0.1041 (  0.8669) /_ -161.8
31                 (144)    3          0.11464 (  0.9546) /_   80.8

ELEMENT = "Line.LINE_45"
36                 (115)    1          0.11415 (  0.9505) /_  -45.1
36                 (116)    2          0.10417 (  0.8674) /_ -161.8
36                 (117)    3          0.11464 (  0.9546) /_   80.8
------------
41                 (145)    1          0.11415 (  0.9505) /_  -45.1
41                 (146)    2           0.1041 (  0.8669) /_ -161.8
41                 (147)    3          0.11457 (   0.954) /_   80.9

ELEMENT = "Line.LINE_46"
47                 ( 31)    1          0.11653 (  0.9704) /_  -43.5
47                 ( 32)    2          0.10816 (  0.9007) /_ -162.9
47                 ( 33)    3          0.11337 (   0.944) /_   80.5
------------
48                 (148)    1          0.11598 (  0.9658) /_  -43.4
48                 (149)    2          0.10785 (  0.8981) /_ -163.1
48                 (150)    3          0.11251 (  0.9369) /_   80.4

ELEMENT = "Line.LINE_47"
48                 (148)    1          0.11598 (  0.9658) /_  -43.4
48                 (149)    2          0.10785 (  0.8981) /_ -163.1
48                 (150)    3          0.11251 (  0.9369) /_   80.4
------------
49                 (151)    1          0.11557 (  0.9624) /_  -43.4
49                 (152)    2          0.10765 (  0.8964) /_ -163.2
49                 (153)    3           0.1119 (  0.9318) /_   80.3

ELEMENT = "Line.LINE_48"
49                 (151)    1          0.11557 (  0.9624) /_  -43.4
49                 (152)    2          0.10765 (  0.8964) /_ -163.2
49                 (153)    3           0.1119 (  0.9318) /_   80.3
------------
50                 (154)    1           0.1153 (  0.9601) /_  -43.3
50                 (155)    2          0.10755 (  0.8956) /_ -163.2
50                 (156)    3          0.11154 (  0.9288) /_   80.3

ELEMENT = "Line.LINE_49"
50                 (154)    1           0.1153 (  0.9601) /_  -43.3
50                 (155)    2          0.10755 (  0.8956) /_ -163.2
50                 (156)    3          0.11154 (  0.9288) /_   80.3
------------
51                 (157)    1          0.11516 (   0.959) /_  -43.3
51                 (158)    2          0.10755 (  0.8956) /_ -163.2
51                 (159)    3          0.11142 (  0.9278) /_   80.2

ELEMENT = "Line.LINE_50"
47                 ( 31)    1          0.11653 (  0.9704) /_  -43.5
47                 ( 32)    2          0.10816 (  0.9007) /_ -162.9
47                 ( 33)    3          0.11337 (   0.944) /_   80.5
------------
42                 (160)    1          0.11653 (  0.9704) /_  -43.5
42                 (161)    2          0.10809 (  0.9001) /_ -162.9
42                 (162)    3          0.11329 (  0.9434) /_   80.5

ELEMENT = "Line.LINE_51"
47                 ( 31)    1          0.11653 (  0.9704) /_  -43.5
47                 ( 32)    2          0.10816 (  0.9007) /_ -162.9
47                 ( 33)    3          0.11337 (   0.944) /_   80.5
------------
52                 (163)    1          0.11645 (  0.9697) /_  -43.5
52                 (164)    2          0.10816 (  0.9007) /_ -162.9
52                 (165)    3          0.11329 (  0.9434) /_   80.5

ELEMENT = "Line.LINE_52"
48                 (148)    1          0.11598 (  0.9658) /_  -43.4
48                 (149)    2          0.10785 (  0.8981) /_ -163.1
48                 (150)    3          0.11251 (  0.9369) /_   80.4
------------
43                 (166)    1          0.11598 (  0.9658) /_  -43.4
43                 (167)    2          0.10779 (  0.8976) /_ -163.1
43                 (168)    3          0.11244 (  0.9363) /_   80.4

ELEMENT = "Line.LINE_53"
48                 (148)    1          0.11598 (  0.9658) /_  -43.4
48                 (149)    2          0.10785 (  0.8981) /_ -163.1
48                 (150)    3          0.11251 (  0.9369) /_   80.4
------------
53                 (169)    1          0.11591 (  0.9652) /_  -43.4
53                 (170)    2          0.10785 (  0.8981) /_ -163.1
53                 (171)    3          0.11244 (  0.9363) /_   80.4

ELEMENT = "Line.LINE_54"
49                 (151)    1          0.11557 (  0.9624) /_  -43.4
49                 (152)    2          0.10765 (  0.8964) /_ -163.2
49                 (153)    3           0.1119 (  0.9318) /_   80.3
------------
44                 (172)    1          0.11557 (  0.9624) /_  -43.4
44                 (173)    2          0.10758 (  0.8959) /_ -163.2
44                 (174)    3          0.11183 (  0.9312) /_   80.3

ELEMENT = "Line.LINE_55"
49                 (151)    1          0.11557 (  0.9624) /_  -43.4
49                 (152)    2          0.10765 (  0.8964) /_ -163.2
49                 (153)    3           0.1119 (  0.9318) /_   80.3
------------
54                 (175)    1           0.1155 (  0.9617) /_  -43.3
54                 (176)    2          0.10765 (  0.8964) /_ -163.2
54                 (177)    3          0.11183 (  0.9312) /_   80.3

ELEMENT = "Line.LINE_56"
50                 (154)    1           0.1153 (  0.9601) /_  -43.3
50                 (155)    2          0.10755 (  0.8956) /_ -163.2
50                 (156)    3          0.11154 (  0.9288) /_   80.3
------------
45                 (178)    1           0.1153 (  0.9601) /_  -43.3
45                 (179)    2          0.10748 (   0.895) /_ -163.2
45                 (180)    3          0.11147 (  0.9282) /_   80.3

ELEMENT = "Line.LINE_57"
50                 (154)    1           0.1153 (  0.9601) /_  -43.3
50                 (155)    2          0.10755 (  0.8956) /_ -163.2
50                 (156)    3          0.11154 (  0.9288) /_   80.3
------------
55                 (181)    1          0.11522 (  0.9595) /_  -43.3
55                 (182)    2          0.10755 (  0.8956) /_ -163.2
55                 (183)    3          0.11147 (  0.9282) /_   80.2

ELEMENT = "Line.LINE_58"
51                 (157)    1          0.11516 (   0.959) /_  -43.3
51                 (158)    2          0.10755 (  0.8956) /_ -163.2
51                 (159)    3          0.11142 (  0.9278) /_   80.2
------------
46                 (184)    1          0.11508 (  0.9583) /_  -43.3
46                 (185)    2          0.10755 (  0.8956) /_ -163.2
46                 (186)    3          0.11135 (  0.9272) /_   80.2

ELEMENT = "Line.LINE_59"
61                 ( 34)    1          0.11591 (  0.9652) /_  -44.5
61                 ( 35)    2          0.10658 (  0.8875) /_ -162.1
61                 ( 36)    3          0.11519 (  0.9592) /_   80.7
------------
62                 (187)    1          0.11513 (  0.9587) /_  -44.8
62                 (188)    2           0.1056 (  0.8793) /_ -161.9
62                 (189)    3          0.11505 (   0.958) /_   80.8

ELEMENT = "Line.LINE_60"
62                 (187)    1          0.11513 (  0.9587) /_  -44.8
62                 (188)    2           0.1056 (  0.8793) /_ -161.9
62                 (189)    3          0.11505 (   0.958) /_   80.8
------------
63                 (190)    1          0.11458 (  0.9542) /_  -45.0
63                 (191)    2          0.10487 (  0.8733) /_ -161.8
63                 (192)    3          0.11491 (  0.9569) /_   80.8

ELEMENT = "Line.LINE_61"
63                 (190)    1          0.11458 (  0.9542) /_  -45.0
63                 (191)    2          0.10487 (  0.8733) /_ -161.8
63                 (192)    3          0.11491 (  0.9569) /_   80.8
------------
64                 (193)    1          0.11426 (  0.9514) /_  -45.1
64                 (194)    2           0.1044 (  0.8693) /_ -161.8
64                 (195)    3          0.11477 (  0.9557) /_   80.8

ELEMENT = "Line.LINE_62"
64                 (193)    1          0.11426 (  0.9514) /_  -45.1
64                 (194)    2           0.1044 (  0.8693) /_ -161.8
64                 (195)    3          0.11477 (  0.9557) /_   80.8
------------
65                 (196)    1          0.11415 (  0.9505) /_  -45.1
65                 (197)    2          0.10417 (  0.8674) /_ -161.8
65                 (198)    3          0.11464 (  0.9546) /_   80.8

ELEMENT = "Line.LINE_63"
61                 ( 34)    1          0.11591 (  0.9652) /_  -44.5
61                 ( 35)    2          0.10658 (  0.8875) /_ -162.1
61                 ( 36)    3          0.11519 (  0.9592) /_   80.7
------------
56                 (199)    1          0.11584 (  0.9646) /_  -44.5
56                 (200)    2           0.1065 (  0.8869) /_ -162.1
56                 (201)    3          0.11519 (  0.9592) /_   80.7

ELEMENT = "Line.LINE_64"
61                 ( 34)    1          0.11591 (  0.9652) /_  -44.5
61                 ( 35)    2          0.10658 (  0.8875) /_ -162.1
61                 ( 36)    3          0.11519 (  0.9592) /_   80.7
------------
66                 (202)    1          0.11584 (  0.9646) /_  -44.5
66                 (203)    2           0.1065 (  0.8869) /_ -162.1
66                 (204)    3          0.11519 (  0.9592) /_   80.7

ELEMENT = "Line.LINE_65"
62                 (187)    1          0.11513 (  0.9587) /_  -44.8
62                 (188)    2           0.1056 (  0.8793) /_ -161.9
62                 (189)    3          0.11505 (   0.958) /_   80.8
------------
57                 (205)    1          0.11506 (  0.9582) /_  -44.8
57                 (206)    2          0.10553 (  0.8787) /_ -161.9
57                 (207)    3          0.11505 (   0.958) /_   80.8

ELEMENT = "Line.LINE_66"
62                 (187)    1          0.11513 (  0.9587) /_  -44.8
62                 (188)    2           0.1056 (  0.8793) /_ -161.9
62                 (189)    3          0.11505 (   0.958) /_   80.8
------------
67                 (208)    1          0.11506 (  0.9582) /_  -44.8
67                 (209)    2          0.10553 (  0.8787) /_ -161.9
67                 (210)    3          0.11505 (   0.958) /_   80.8

ELEMENT = "Line.LINE_67"
63                 (190)    1          0.11458 (  0.9542) /_  -45.0
63                 (191)    2          0.10487 (  0.8733) /_ -161.8
63                 (192)    3          0.11491 (  0.9569) /_   80.8
------------
58                 (211)    1          0.11452 (  0.9536) /_  -45.0
58                 (212)    2           0.1048 (  0.8727) /_ -161.8
58                 (213)    3          0.11491 (  0.9569) /_   80.8

ELEMENT = "Line.LINE_68"
63                 (190)    1          0.11458 (  0.9542) /_  -45.0
63                 (191)    2          0.10487 (  0.8733) /_ -161.8
63                 (192)    3          0.11491 (  0.9569) /_   80.8
------------
68                 (214)    1          0.11452 (  0.9536) /_  -45.0
68                 (215)    2           0.1048 (  0.8727) /_ -161.8
68                 (216)    3          0.11491 (  0.9569) /_   80.8

ELEMENT = "Line.LINE_69"
64                 (193)    1          0.11426 (  0.9514) /_  -45.1
64                 (194)    2           0.1044 (  0.8693) /_ -161.8
64                 (195)    3          0.11477 (  0.9557) /_   80.8
------------
59                 (217)    1          0.11419 (  0.9509) /_  -45.1
59                 (218)    2          0.10433 (  0.8687) /_ -161.7
59                 (219)    3          0.11477 (  0.9557) /_   80.8

ELEMENT = "Line.LINE_70"
64                 (193)    1          0.11426 (  0.9514) /_  -45.1
64                 (194)    2           0.1044 (  0.8693) /_ -161.8
64                 (195)    3          0.11477 (  0.9557) /_   80.8
------------
69                 (220)    1          0.11419 (  0.9509) /_  -45.1
69                 (221)    2          0.10433 (  0.8687) /_ -161.7
69                 (222)    3          0.11477 (  0.9557) /_   80.8

ELEMENT = "Line.LINE_71"
65                 (196)    1          0.11415 (  0.9505) /_  -45.1
65                 (197)    2          0.10417 (  0.8674) /_ -161.8
65                 (198)    3          0.11464 (  0.9546) /_   80.8
------------
60                 (223)    1          0.11408 (  0.9499) /_  -45.2
60                 (224)    2           0.1041 (  0.8669) /_ -161.8
60                 (225)    3          0.11464 (  0.9546) /_   80.8

ELEMENT = "Line.LINE_72"
65                 (196)    1          0.11415 (  0.9505) /_  -45.1
65                 (197)    2          0.10417 (  0.8674) /_ -161.8
65                 (198)    3          0.11464 (  0.9546) /_   80.8
------------
70                 (226)    1          0.11415 (  0.9505) /_  -45.1
70                 (227)    2           0.1041 (  0.8669) /_ -161.8
70                 (228)    3          0.11457 (   0.954) /_   80.9

ELEMENT = "Line.LINE_73"
76                 ( 37)    1          0.11653 (  0.9704) /_  -43.5
76                 ( 38)    2          0.10816 (  0.9007) /_ -162.9
76                 ( 39)    3          0.11337 (   0.944) /_   80.5
------------
77                 (229)    1          0.11598 (  0.9658) /_  -43.4
77                 (230)    2          0.10785 (  0.8981) /_ -163.1
77                 (231)    3          0.11251 (  0.9369) /_   80.4

ELEMENT = "Line.LINE_74"
77                 (229)    1          0.11598 (  0.9658) /_  -43.4
77                 (230)    2          0.10785 (  0.8981) /_ -163.1
77                 (231)    3          0.11251 (  0.9369) /_   80.4
------------
78                 (232)    1          0.11557 (  0.9624) /_  -43.4
78                 (233)    2          0.10765 (  0.8964) /_ -163.2
78                 (234)    3           0.1119 (  0.9318) /_   80.3

ELEMENT = "Line.LINE_75"
78                 (232)    1          0.11557 (  0.9624) /_  -43.4
78                 (233)    2          0.10765 (  0.8964) /_ -163.2
78                 (234)    3           0.1119 (  0.9318) /_   80.3
------------
79                 (235)    1           0.1153 (  0.9601) /_  -43.3
79                 (236)    2          0.10755 (  0.8956) /_ -163.2
79                 (237)    3          0.11154 (  0.9288) /_   80.3

ELEMENT = "Line.LINE_76"
79                 (235)    1           0.1153 (  0.9601) /_  -43.3
79                 (236)    2          0.10755 (  0.8956) /_ -163.2
79                 (237)    3          0.11154 (  0.9288) /_   80.3
------------
80                 (238)    1          0.11516 (   0.959) /_  -43.3
80                 (239)    2          0.10755 (  0.8956) /_ -163.2
80                 (240)    3          0.11142 (  0.9278) /_   80.2

ELEMENT = "Line.LINE_77"
76                 ( 37)    1          0.11653 (  0.9704) /_  -43.5
76                 ( 38)    2          0.10816 (  0.9007) /_ -162.9
76                 ( 39)    3          0.11337 (   0.944) /_   80.5
------------
71                 (241)    1          0.11653 (  0.9704) /_  -43.5
71                 (242)    2          0.10809 (  0.9001) /_ -162.9
71                 (243)    3          0.11329 (  0.9434) /_   80.5

ELEMENT = "Line.LINE_78"
76                 ( 37)    1          0.11653 (  0.9704) /_  -43.5
76                 ( 38)    2          0.10816 (  0.9007) /_ -162.9
76                 ( 39)    3          0.11337 (   0.944) /_   80.5
------------
81                 (244)    1          0.11645 (  0.9697) /_  -43.5
81                 (245)    2          0.10816 (  0.9007) /_ -162.9
81                 (246)    3          0.11329 (  0.9434) /_   80.5

ELEMENT = "Line.LINE_79"
77                 (229)    1          0.11598 (  0.9658) /_  -43.4
77                 (230)    2          0.10785 (  0.8981) /_ -163.1
77                 (231)    3          0.11251 (  0.9369) /_   80.4
------------
72                 (247)    1          0.11598 (  0.9658) /_  -43.4
72                 (248)    2          0.10779 (  0.8976) /_ -163.1
72                 (249)    3          0.11244 (  0.9363) /_   80.4

ELEMENT = "Line.LINE_80"
77                 (229)    1          0.11598 (  0.9658) /_  -43.4
77                 (230)    2          0.10785 (  0.8981) /_ -163.1
77                 (231)    3          0.11251 (  0.9369) /_   80.4
------------
82                 (250)    1          0.11591 (  0.9652) /_  -43.4
82                 (251)    2          0.10785 (  0.8981) /_ -163.1
82                 (252)    3          0.11244 (  0.9363) /_   80.4

ELEMENT = "Line.LINE_81"
78                 (232)    1          0.11557 (  0.9624) /_  -43.4
78                 (233)    2          0.10765 (  0.8964) /_ -163.2
78                 (234)    3           0.1119 (  0.9318) /_   80.3
------------
73                 (253)    1          0.11557 (  0.9624) /_  -43.4
73                 (254)    2          0.10758 (  0.8959) /_ -163.2
73                 (255)    3          0.11183 (  0.9312) /_   80.3

ELEMENT = "Line.LINE_82"
78                 (232)    1          0.11557 (  0.9624) /_  -43.4
78                 (233)    2          0.10765 (  0.8964) /_ -163.2
78                 (234)    3           0.1119 (  0.9318) /_   80.3
------------
83                 (256)    1           0.1155 (  0.9617) /_  -43.3
83                 (257)    2          0.10765 (  0.8964) /_ -163.2
83                 (258)    3          0.11183 (  0.9312) /_   80.3

ELEMENT = "Line.LINE_83"
79                 (235)    1           0.1153 (  0.9601) /_  -43.3
79                 (236)    2          0.10755 (  0.8956) /_ -163.2
79                 (237)    3          0.11154 (  0.9288) /_   80.3
------------
74                 (259)    1           0.1153 (  0.9601) /_  -43.3
74                 (260)    2          0.10748 (   0.895) /_ -163.2
74                 (261)    3          0.11147 (  0.9282) /_   80.3

ELEMENT = "Line.LINE_84"
79                 (235)    1           0.1153 (  0.9601) /_  -43.3
79                 (236)    2          0.10755 (  0.8956) /_ -163.2
79                 (237)    3          0.11154 (  0.9288) /_   80.3
------------
84                 (262)    1          0.11522 (  0.9595) /_  -43.3
84                 (263)    2          0.10755 (  0.8956) /_ -163.2
84                 (264)    3          0.11147 (  0.9282) /_   80.2

ELEMENT = "Line.LINE_85"
80                 (238)    1          0.11516 (   0.959) /_  -43.3
80                 (239)    2          0.10755 (  0.8956) /_ -163.2
80                 (240)    3          0.11142 (  0.9278) /_   80.2
------------
75                 (265)    1          0.11508 (  0.9583) /_  -43.3
75                 (266)    2          0.10755 (  0.8956) /_ -163.2
75                 (267)    3          0.11135 (  0.9272) /_   80.2

ELEMENT = "Transformer.T0"
UTILITY_COMPANY    (  1)    1           5.7729 (  0.9999) /_    0.0
UTILITY_COMPANY    (  2)    2           5.7729 (  0.9999) /_ -120.0
UTILITY_COMPANY    (  3)    3           5.7733 (       1) /_  120.0
UTILITY_COMPANY    (  0)    0                0 (       0) /_    0.0
------------
MAIN_SWITCH_PANEL  (  4)    1          0.27465 (  0.9911) /_   -1.7
MAIN_SWITCH_PANEL  (  5)    2          0.27433 (  0.9899) /_ -121.2
MAIN_SWITCH_PANEL  (  6)    3          0.27682 (  0.9989) /_  118.6
MAIN_SWITCH_PANEL  (  0)    0                0 (       0) /_    0.0

ELEMENT = "Transformer.T1"
MAIN_SWITCH_PANEL  (  4)    1          0.27465 (  0.9911) /_   -1.7
MAIN_SWITCH_PANEL  (  5)    2          0.27433 (  0.9899) /_ -121.2
MAIN_SWITCH_PANEL  (  6)    3          0.27682 (  0.9989) /_  118.6
MAIN_SWITCH_PANEL  (  0)    0                0 (       0) /_    0.0
------------
SWITCH_PANEL_1     ( 10)    1          0.11973 (   0.997) /_  -43.0
SWITCH_PANEL_1     ( 11)    2          0.11098 (  0.9241) /_ -162.1
SWITCH_PANEL_1     ( 12)    3          0.11721 (   0.976) /_   81.2
SWITCH_PANEL_1     (  0)    0                0 (       0) /_    0.0

ELEMENT = "Transformer.T2"
MAIN_SWITCH_PANEL  (  4)    1          0.27465 (  0.9911) /_   -1.7
MAIN_SWITCH_PANEL  (  5)    2          0.27433 (  0.9899) /_ -121.2
MAIN_SWITCH_PANEL  (  6)    3          0.27682 (  0.9989) /_  118.6
MAIN_SWITCH_PANEL  (  0)    0                0 (       0) /_    0.0
------------
SWITCH_PANEL_2     (268)    1          0.11969 (  0.9967) /_  -31.7
SWITCH_PANEL_2     (269)    2          0.11861 (  0.9877) /_ -151.5
SWITCH_PANEL_2     (270)    3          0.11955 (  0.9955) /_   88.9
SWITCH_PANEL_2     (  0)    0                0 (       0) /_    0.0

= = = = = = = = = = = = = = = = = = =  = = = = = = = = = = =  = =

Power Conversion Elements

Bus               (node ref)  Phase    Magnitude, kV (pu)    Angle

ELEMENT = "Load.DCFC"
DCFC               (  7)    1          0.27465 (  0.9911) /_   -1.7
DCFC               (  8)    2          0.27433 (  0.9899) /_ -121.2
DCFC               (  9)    3          0.27682 (  0.9989) /_  118.6

ELEMENT = "Load.SWITCH_PANEL_2"
SWITCH_PANEL_2     (268)    1          0.11969 (  0.9967) /_  -31.7
SWITCH_PANEL_2     (269)    2          0.11861 (  0.9877) /_ -151.5
SWITCH_PANEL_2     (270)    3          0.11955 (  0.9955) /_   88.9

ELEMENT = "Load.CA-148"
1                  ( 49)    1          0.11822 (  0.9845) /_  -43.3
1                  ( 50)    2          0.10941 (   0.911) /_ -162.1

ELEMENT = "Load.CA-149"
2                  ( 55)    1          0.11791 (  0.9818) /_  -43.4
2                  ( 56)    2          0.10914 (  0.9088) /_ -162.1

ELEMENT = "Load.CA-212"
3                  ( 61)    1          0.11765 (  0.9797) /_  -43.4
3                  ( 62)    2            0.109 (  0.9077) /_ -162.0

ELEMENT = "Load.CA-213"
4                  ( 67)    1          0.11752 (  0.9786) /_  -43.4
4                  ( 68)    2          0.10893 (  0.9071) /_ -162.0

ELEMENT = "Load.CA-303"
9                  ( 53)    2          0.10941 (  0.9111) /_ -162.1
9                  ( 54)    3           0.1161 (  0.9668) /_   81.1

ELEMENT = "Load.CA-304"
10                 ( 59)    2          0.10915 (  0.9089) /_ -162.1
10                 ( 60)    3          0.11591 (  0.9652) /_   81.0

ELEMENT = "Load.CA-305"
11                 ( 66)    3           0.1158 (  0.9643) /_   81.0
11                 ( 64)    1          0.11765 (  0.9797) /_  -43.4

ELEMENT = "Load.CA-306"
12                 ( 72)    3          0.11574 (  0.9638) /_   80.9
12                 ( 70)    1          0.11752 (  0.9786) /_  -43.4

ELEMENT = "Load.CA-307"
13                 ( 82)    1          0.11822 (  0.9845) /_  -43.3
13                 ( 83)    2          0.10941 (   0.911) /_ -162.1

ELEMENT = "Load.CA-308"
14                 ( 88)    1          0.11791 (  0.9818) /_  -43.4
14                 ( 89)    2          0.10914 (  0.9088) /_ -162.1

ELEMENT = "Load.CA-309"
15                 ( 94)    1          0.11765 (  0.9797) /_  -43.4
15                 ( 95)    2            0.109 (  0.9077) /_ -162.0

ELEMENT = "Load.CA-310"
16                 (100)    1          0.11752 (  0.9786) /_  -43.4
16                 (101)    2          0.10893 (  0.9071) /_ -162.0

ELEMENT = "Load.CA-311"
21                 ( 86)    2          0.10941 (  0.9111) /_ -162.1
21                 ( 87)    3           0.1161 (  0.9668) /_   81.1

ELEMENT = "Load.CA-312"
22                 ( 92)    2          0.10915 (  0.9089) /_ -162.1
22                 ( 93)    3          0.11591 (  0.9652) /_   81.0

ELEMENT = "Load.CA-313"
23                 ( 99)    3           0.1158 (  0.9643) /_   81.0
23                 ( 97)    1          0.11765 (  0.9797) /_  -43.4

ELEMENT = "Load.CA-314"
24                 (105)    3          0.11574 (  0.9638) /_   80.9
24                 (103)    1          0.11752 (  0.9786) /_  -43.4

ELEMENT = "Load.CA-315"
27                 (118)    1          0.11584 (  0.9646) /_  -44.5
27                 (119)    2           0.1065 (  0.8869) /_ -162.1

ELEMENT = "Load.CA-316"
28                 (124)    1          0.11506 (  0.9582) /_  -44.8
28                 (125)    2          0.10553 (  0.8787) /_ -161.9

ELEMENT = "Load.CA-317"
29                 (130)    1          0.11452 (  0.9536) /_  -45.0
29                 (131)    2           0.1048 (  0.8727) /_ -161.8

ELEMENT = "Load.CA-318"
30                 (136)    1          0.11419 (  0.9509) /_  -45.1
30                 (137)    2          0.10433 (  0.8687) /_ -161.7

ELEMENT = "Load.CA-319"
31                 (142)    1          0.11408 (  0.9499) /_  -45.2
31                 (143)    2           0.1041 (  0.8669) /_ -161.8

ELEMENT = "Load.CA-320"
37                 (121)    1          0.11584 (  0.9646) /_  -44.5
37                 (122)    2           0.1065 (  0.8869) /_ -162.1

ELEMENT = "Load.CA-321"
38                 (127)    1          0.11506 (  0.9582) /_  -44.8
38                 (128)    2          0.10553 (  0.8787) /_ -161.9

ELEMENT = "Load.CA-322"
39                 (133)    1          0.11452 (  0.9536) /_  -45.0
39                 (134)    2           0.1048 (  0.8727) /_ -161.8

ELEMENT = "Load.CA-323"
40                 (139)    1          0.11419 (  0.9509) /_  -45.1
40                 (140)    2          0.10433 (  0.8687) /_ -161.7

ELEMENT = "Load.CA-324"
41                 (146)    2           0.1041 (  0.8669) /_ -161.8
41                 (147)    3          0.11457 (   0.954) /_   80.9

ELEMENT = "Load.CA-325"
42                 (161)    2          0.10809 (  0.9001) /_ -162.9
42                 (162)    3          0.11329 (  0.9434) /_   80.5

ELEMENT = "Load.CA-326"
43                 (167)    2          0.10779 (  0.8976) /_ -163.1
43                 (168)    3          0.11244 (  0.9363) /_   80.4

ELEMENT = "Load.CA-327"
44                 (173)    2          0.10758 (  0.8959) /_ -163.2
44                 (174)    3          0.11183 (  0.9312) /_   80.3

ELEMENT = "Load.CA-489"
45                 (179)    2          0.10748 (   0.895) /_ -163.2
45                 (180)    3          0.11147 (  0.9282) /_   80.3

ELEMENT = "Load.CA-490"
46                 (186)    3          0.11135 (  0.9272) /_   80.2
46                 (184)    1          0.11508 (  0.9583) /_  -43.3

ELEMENT = "Load.CA-491"
52                 (165)    3          0.11329 (  0.9434) /_   80.5
52                 (163)    1          0.11645 (  0.9697) /_  -43.5

ELEMENT = "Load.CA-492"
53                 (171)    3          0.11244 (  0.9363) /_   80.4
53                 (169)    1          0.11591 (  0.9652) /_  -43.4

ELEMENT = "Load.CA-493"
54                 (177)    3          0.11183 (  0.9312) /_   80.3
54                 (175)    1           0.1155 (  0.9617) /_  -43.3

ELEMENT = "Load.CA-494"
55                 (183)    3          0.11147 (  0.9282) /_   80.2
55                 (181)    1          0.11522 (  0.9595) /_  -43.3

ELEMENT = "Load.CA-495"
56                 (199)    1          0.11584 (  0.9646) /_  -44.5
56                 (200)    2           0.1065 (  0.8869) /_ -162.1

ELEMENT = "Load.CA-496"
57                 (205)    1          0.11506 (  0.9582) /_  -44.8
57                 (206)    2          0.10553 (  0.8787) /_ -161.9

ELEMENT = "Load.CA-497"
58                 (211)    1          0.11452 (  0.9536) /_  -45.0
58                 (212)    2           0.1048 (  0.8727) /_ -161.8

ELEMENT = "Load.CA-498"
59                 (217)    1          0.11419 (  0.9509) /_  -45.1
59                 (218)    2          0.10433 (  0.8687) /_ -161.7

ELEMENT = "Load.CA-499"
60                 (223)    1          0.11408 (  0.9499) /_  -45.2
60                 (224)    2           0.1041 (  0.8669) /_ -161.8

ELEMENT = "Load.CA-500"
66                 (202)    1          0.11584 (  0.9646) /_  -44.5
66                 (203)    2           0.1065 (  0.8869) /_ -162.1

ELEMENT = "Load.CA-501"
67                 (208)    1          0.11506 (  0.9582) /_  -44.8
67                 (209)    2          0.10553 (  0.8787) /_ -161.9

ELEMENT = "Load.CA-502"
68                 (214)    1          0.11452 (  0.9536) /_  -45.0
68                 (215)    2           0.1048 (  0.8727) /_ -161.8

ELEMENT = "Load.CA-503"
69                 (220)    1          0.11419 (  0.9509) /_  -45.1
69                 (221)    2          0.10433 (  0.8687) /_ -161.7

ELEMENT = "Load.CA-504"
70                 (227)    2           0.1041 (  0.8669) /_ -161.8
70                 (228)    3          0.11457 (   0.954) /_   80.9

ELEMENT = "Load.CA-505"
71                 (242)    2          0.10809 (  0.9001) /_ -162.9
71                 (243)    3          0.11329 (  0.9434) /_   80.5

ELEMENT = "Load.CA-506"
72                 (248)    2          0.10779 (  0.8976) /_ -163.1
72                 (249)    3          0.11244 (  0.9363) /_   80.4

ELEMENT = "Load.CA-507"
73                 (254)    2          0.10758 (  0.8959) /_ -163.2
73                 (255)    3          0.11183 (  0.9312) /_   80.3

ELEMENT = "Load.CA-508"
74                 (260)    2          0.10748 (   0.895) /_ -163.2
74                 (261)    3          0.11147 (  0.9282) /_   80.3

ELEMENT = "Load.CA-509"
75                 (267)    3          0.11135 (  0.9272) /_   80.2
75                 (265)    1          0.11508 (  0.9583) /_  -43.3

ELEMENT = "Load.CA-510"
81                 (246)    3          0.11329 (  0.9434) /_   80.5
81                 (244)    1          0.11645 (  0.9697) /_  -43.5

ELEMENT = "Load.CA-511"
82                 (252)    3          0.11244 (  0.9363) /_   80.4
82                 (250)    1          0.11591 (  0.9652) /_  -43.4

ELEMENT = "Load.CA-512"
83                 (258)    3          0.11183 (  0.9312) /_   80.3
83                 (256)    1           0.1155 (  0.9617) /_  -43.3

ELEMENT = "Load.CA-513"
84                 (264)    3          0.11147 (  0.9282) /_   80.2
84                 (262)    1          0.11522 (  0.9595) /_  -43.3

